10 

C         -1.01437         -0.26598         -0.00389
C          0.36310          0.27299          0.34189
Br          0.45392          1.73904          0.03784
C          1.40720         -0.36613         -0.40913
N          2.23229         -0.86871         -1.02159
Br         -3.12231          1.20170          1.58446
H         -1.22213         -0.14579         -1.06522
H         -1.05462         -1.32540          0.24394
H         -1.86592          0.32692          0.63776
H          0.57700          0.20034          1.41141

