10 

C         -0.84571         -0.61688         -0.06609
C          0.17019          0.45173          0.30034
Br         -0.22310          2.01221         -0.50602
C          1.50303          0.10398         -0.10637
N          2.56025         -0.17043         -0.44611
Br         -3.61439          0.27129          0.74998
H         -1.96419         -0.25808          0.26358
H         -0.59779         -1.53829          0.45843
H         -0.83596         -0.80894         -1.13722
H          0.15697          0.68340          1.36855

